<configuration>
    <input>
        <net-file value="Eastway-Central.net.xml" />
        <route-files value="Eastway-Central.rou.xml" />
        <additional-files value="Eastway-Central.add.xml" />
    </input>
    <step-length value="0.1" />
</configuration>