<?xml version="1.0" encoding="UTF-8"?>

<!-- generated on 2022-06-22 21:49:59 by Eclipse SUMO netedit Version 1.13.0
<configuration xmlns:xsi="http://www.w3.org/2001/XMLSchema-instance" xsi:noNamespaceSchemaLocation="http://sumo.dlr.de/xsd/netconvertConfiguration.xsd">

    <input>
        <sumo-net-file value="D:\Projects\SUMO%20Files\TSP-GA\data\Eastway-Central.net.xml"/>
    </input>

    <output>
        <output-file value="D:\Projects\SUMO%20Files\TSP-GA\data\Eastway-Central.net.xml"/>
    </output>

    <processing>
        <geometry.min-radius.fix.railways value="false"/>
        <geometry.max-grade.fix value="false"/>
        <offset.disable-normalization value="true"/>
        <lefthand value="false"/>
    </processing>

    <junctions>
        <no-turnarounds value="true"/>
        <junctions.corner-detail value="5"/>
        <junctions.limit-turn-speed value="5.5"/>
        <rectangular-lane-cut value="false"/>
    </junctions>

    <pedestrian>
        <walkingareas value="false"/>
    </pedestrian>

    <report>
        <aggregate-warnings value="5"/>
    </report>

</configuration>
-->

<net version="1.9" junctionCornerDetail="5" limitTurnSpeed="5.50" xmlns:xsi="http://www.w3.org/2001/XMLSchema-instance" xsi:noNamespaceSchemaLocation="http://sumo.dlr.de/xsd/net_file.xsd">

    <location netOffset="0.00,0.00" convBoundary="-1000.00,-1000.00,1000.00,1000.00" origBoundary="-10000000000.00,-10000000000.00,10000000000.00,10000000000.00" projParameter="!"/>

    <edge id=":J1_0" function="internal">
        <lane id=":J1_0_0" index="0" speed="6.61" length="9.33" shape="-11.18,16.73 -11.53,14.11 -12.58,12.25 -14.33,11.12 -16.78,10.74"/>
    </edge>
    <edge id=":J1_1" function="internal">
        <lane id=":J1_1_0" index="0" speed="20.12" length="33.73" shape="-7.98,16.73 -6.96,-16.98"/>
        <lane id=":J1_1_1" index="1" speed="20.12" length="33.73" shape="-4.78,16.74 -3.76,-16.98"/>
    </edge>
    <edge id=":J1_3" function="internal">
        <lane id=":J1_3_0" index="0" speed="12.25" length="34.52" shape="-1.58,16.74 -0.47,5.88 2.85,-1.90 8.38,-6.57 16.13,-8.16"/>
    </edge>
    <edge id=":J1_4" function="internal">
        <lane id=":J1_4_0" index="0" speed="7.58" length="12.63" shape="16.21,11.16 11.91,11.51 8.84,12.56 6.99,14.31 6.37,16.75"/>
    </edge>
    <edge id=":J1_5" function="internal">
        <lane id=":J1_5_0" index="0" speed="15.65" length="32.98" shape="16.21,11.16 -16.78,10.74"/>
        <lane id=":J1_5_1" index="1" speed="15.65" length="32.98" shape="16.20,7.96 -16.77,7.54"/>
    </edge>
    <edge id=":J1_7" function="internal">
        <lane id=":J1_7_0" index="0" speed="12.07" length="33.66" shape="16.18,4.76 8.81,2.61 1.27,-2.78 -4.61,-9.84 -6.96,-16.98"/>
        <lane id=":J1_7_1" index="1" speed="11.29" length="29.33" shape="16.17,1.56 9.30,-0.09 2.86,-4.38 -1.91,-10.33 -3.76,-16.98"/>
    </edge>
    <edge id=":J1_9" function="internal">
        <lane id=":J1_9_0" index="0" speed="6.47" length="9.02" shape="10.55,-16.94 10.88,-14.49 11.91,-12.74 13.66,-11.70 16.11,-11.36"/>
    </edge>
    <edge id=":J1_10" function="internal">
        <lane id=":J1_10_0" index="0" speed="20.12" length="33.72" shape="7.35,-16.95 6.37,16.75"/>
        <lane id=":J1_10_1" index="1" speed="20.12" length="33.72" shape="4.15,-16.96 3.17,16.75"/>
    </edge>
    <edge id=":J1_12" function="internal">
        <lane id=":J1_12_0" index="0" speed="12.20" length="34.14" shape="0.95,-16.97 -0.25,-6.23 -3.61,1.44 -9.11,6.03 -16.77,7.54"/>
    </edge>
    <edge id=":J1_13" function="internal">
        <lane id=":J1_13_0" index="0" speed="7.68" length="13.05" shape="-16.73,-10.75 -12.46,-11.11 -9.41,-12.27 -7.58,-14.23 -6.96,-16.98"/>
    </edge>
    <edge id=":J1_14" function="internal">
        <lane id=":J1_14_0" index="0" speed="15.65" length="32.86" shape="-16.73,-10.75 16.11,-11.36"/>
        <lane id=":J1_14_1" index="1" speed="15.65" length="32.86" shape="-16.74,-7.55 16.13,-8.16"/>
    </edge>
    <edge id=":J1_16" function="internal">
        <lane id=":J1_16_0" index="0" speed="12.03" length="33.20" shape="-16.74,-4.35 -9.38,-2.27 -1.85,2.90 4.02,9.72 6.37,16.75"/>
        <lane id=":J1_16_1" index="1" speed="11.24" length="28.88" shape="-16.75,-1.15 -9.89,0.44 -3.45,4.52 1.32,10.24 3.17,16.75"/>
    </edge>
    <edge id=":J10_0" function="internal">
        <lane id=":J10_0_0" index="0" speed="15.65" length="0.10" shape="130.00,11.20 130.00,11.20"/>
        <lane id=":J10_0_1" index="1" speed="15.65" length="0.10" shape="130.00,8.00 130.00,8.00"/>
        <lane id=":J10_0_2" index="2" speed="15.65" length="0.10" shape="130.00,4.80 130.00,4.80"/>
        <lane id=":J10_0_3" index="3" speed="15.65" length="0.10" shape="130.00,1.60 130.00,1.60"/>
    </edge>
    <edge id=":J11_0" function="internal">
        <lane id=":J11_0_0" index="0" speed="20.12" length="0.30" shape="-11.20,70.15 -11.20,69.85"/>
        <lane id=":J11_0_1" index="1" speed="20.12" length="0.30" shape="-8.00,70.15 -8.00,69.85"/>
        <lane id=":J11_0_2" index="2" speed="20.12" length="0.30" shape="-4.80,70.15 -4.80,69.85"/>
        <lane id=":J11_0_3" index="3" speed="20.12" length="0.30" shape="-1.60,70.15 -1.60,69.85"/>
    </edge>
    <edge id=":J12_0" function="internal">
        <lane id=":J12_0_0" index="0" speed="20.12" length="0.10" shape="-11.20,100.00 -11.20,100.00"/>
        <lane id=":J12_0_1" index="1" speed="20.12" length="0.10" shape="-8.00,100.00 -8.00,100.00"/>
        <lane id=":J12_0_2" index="2" speed="20.12" length="0.10" shape="-4.80,100.00 -4.80,100.00"/>
        <lane id=":J12_0_3" index="3" speed="20.12" length="0.10" shape="-1.60,100.00 -1.60,100.00"/>
    </edge>
    <edge id=":J5_0" function="internal">
        <lane id=":J5_0_0" index="0" speed="15.65" length="0.30" shape="-70.12,-11.20 -69.78,-11.20"/>
        <lane id=":J5_0_1" index="1" speed="15.65" length="0.30" shape="-70.12,-8.00 -69.81,-8.00"/>
        <lane id=":J5_0_2" index="2" speed="15.65" length="0.30" shape="-70.12,-4.80 -69.84,-4.80"/>
        <lane id=":J5_0_3" index="3" speed="15.65" length="0.30" shape="-70.12,-1.60 -69.87,-1.60"/>
    </edge>
    <edge id=":J6_0" function="internal">
        <lane id=":J6_0_0" index="0" speed="15.65" length="0.10" shape="-110.00,-11.20 -110.00,-11.20"/>
        <lane id=":J6_0_1" index="1" speed="15.65" length="0.10" shape="-110.00,-8.00 -110.00,-8.00"/>
        <lane id=":J6_0_2" index="2" speed="15.65" length="0.10" shape="-110.00,-4.80 -110.00,-4.80"/>
        <lane id=":J6_0_3" index="3" speed="15.65" length="0.10" shape="-110.00,-1.60 -110.00,-1.60"/>
    </edge>
    <edge id=":J7_0" function="internal">
        <lane id=":J7_0_0" index="0" speed="20.12" length="0.29" shape="11.20,-80.11 11.20,-79.77"/>
        <lane id=":J7_0_1" index="1" speed="20.12" length="0.29" shape="8.00,-80.11 8.00,-79.80"/>
        <lane id=":J7_0_2" index="2" speed="20.12" length="0.29" shape="4.80,-80.11 4.80,-79.84"/>
        <lane id=":J7_0_3" index="3" speed="20.12" length="0.29" shape="1.60,-80.11 1.60,-79.87"/>
    </edge>
    <edge id=":J8_0" function="internal">
        <lane id=":J8_0_0" index="0" speed="20.12" length="0.10" shape="11.20,-120.00 11.20,-120.00"/>
        <lane id=":J8_0_1" index="1" speed="20.12" length="0.10" shape="8.00,-120.00 8.00,-120.00"/>
        <lane id=":J8_0_2" index="2" speed="20.12" length="0.10" shape="4.80,-120.00 4.80,-120.00"/>
        <lane id=":J8_0_3" index="3" speed="20.12" length="0.10" shape="1.60,-120.00 1.60,-120.00"/>
    </edge>
    <edge id=":J9_0" function="internal">
        <lane id=":J9_0_0" index="0" speed="15.65" length="0.30" shape="60.15,11.20 59.84,11.20"/>
        <lane id=":J9_0_1" index="1" speed="15.65" length="0.30" shape="60.15,8.00 59.85,8.00"/>
        <lane id=":J9_0_2" index="2" speed="15.65" length="0.30" shape="60.15,4.80 59.85,4.80"/>
        <lane id=":J9_0_3" index="3" speed="15.65" length="0.30" shape="60.15,1.60 59.85,1.60"/>
    </edge>

    <edge id="-E0" from="J1" to="J0" priority="-1" shape="-9.43,5.96 -182.24,5.58 -1000.00,0.00">
        <lane id="-E0_0" index="0" speed="15.65" length="983.27" shape="-16.78,10.74 -182.26,10.38 -1000.03,4.80"/>
        <lane id="-E0_1" index="1" speed="15.65" length="983.27" shape="-16.77,7.54 -182.25,7.18 -1000.01,1.60"/>
    </edge>
    <edge id="-E1" from="J1" to="J2" priority="-1" shape="1.58,12.24 0.00,1000.00">
        <lane id="-E1_0" index="0" speed="20.12" length="983.25" shape="6.37,16.75 4.80,1000.01"/>
        <lane id="-E1_1" index="1" speed="20.12" length="983.25" shape="3.17,16.75 1.60,1000.00"/>
    </edge>
    <edge id="-E2" from="J3" to="J10" priority="-1">
        <lane id="-E2_0" index="0" speed="15.65" length="870.00" shape="1000.00,11.20 130.00,11.20"/>
        <lane id="-E2_1" index="1" speed="15.65" length="870.00" shape="1000.00,8.00 130.00,8.00"/>
        <lane id="-E2_2" index="2" speed="15.65" length="870.00" shape="1000.00,4.80 130.00,4.80"/>
        <lane id="-E2_3" index="3" speed="15.65" length="870.00" shape="1000.00,1.60 130.00,1.60"/>
    </edge>
    <edge id="-E2.365" from="J10" to="J9" priority="-1">
        <lane id="-E2.365_0" index="0" speed="15.65" length="69.85" shape="130.00,11.20 60.15,11.20"/>
        <lane id="-E2.365_1" index="1" speed="15.65" length="69.85" shape="130.00,8.00 60.15,8.00"/>
        <lane id="-E2.365_2" index="2" speed="15.65" length="69.85" shape="130.00,4.80 60.15,4.80"/>
        <lane id="-E2.365_3" index="3" speed="15.65" length="69.85" shape="130.00,1.60 60.15,1.60"/>
    </edge>
    <edge id="-E2.430" from="J9" to="J1" priority="-1" shape="60.00,0.00 12.14,-0.04">
        <lane id="-E2.430_0" index="0" speed="15.65" length="43.66" shape="59.84,11.20 16.21,11.16"/>
        <lane id="-E2.430_1" index="1" speed="15.65" length="43.66" shape="59.85,8.00 16.20,7.96"/>
        <lane id="-E2.430_2" index="2" speed="15.65" length="43.66" shape="59.85,4.80 16.18,4.76"/>
        <lane id="-E2.430_3" index="3" speed="15.65" length="43.66" shape="59.85,1.60 16.17,1.56"/>
    </edge>
    <edge id="-E3" from="J4" to="J8" priority="-1">
        <lane id="-E3_0" index="0" speed="20.12" length="880.00" shape="11.20,-1000.00 11.20,-120.00"/>
        <lane id="-E3_1" index="1" speed="20.12" length="880.00" shape="8.00,-1000.00 8.00,-120.00"/>
        <lane id="-E3_2" index="2" speed="20.12" length="880.00" shape="4.80,-1000.00 4.80,-120.00"/>
        <lane id="-E3_3" index="3" speed="20.12" length="880.00" shape="1.60,-1000.00 1.60,-120.00"/>
    </edge>
    <edge id="-E3.401" from="J8" to="J7" priority="-1">
        <lane id="-E3.401_0" index="0" speed="20.12" length="39.89" shape="11.20,-120.00 11.20,-80.11"/>
        <lane id="-E3.401_1" index="1" speed="20.12" length="39.89" shape="8.00,-120.00 8.00,-80.11"/>
        <lane id="-E3.401_2" index="2" speed="20.12" length="39.89" shape="4.80,-120.00 4.80,-80.11"/>
        <lane id="-E3.401_3" index="3" speed="20.12" length="39.89" shape="1.60,-120.00 1.60,-80.11"/>
    </edge>
    <edge id="-E3.443" from="J7" to="J1" priority="-1" shape="0.00,-80.00 -0.77,-5.48">
        <lane id="-E3.443_0" index="0" speed="20.12" length="62.87" shape="11.20,-79.77 10.55,-16.94"/>
        <lane id="-E3.443_1" index="1" speed="20.12" length="62.87" shape="8.00,-79.80 7.35,-16.95"/>
        <lane id="-E3.443_2" index="2" speed="20.12" length="62.87" shape="4.80,-79.84 4.15,-16.96"/>
        <lane id="-E3.443_3" index="3" speed="20.12" length="62.87" shape="1.60,-79.87 0.95,-16.97"/>
    </edge>
    <edge id="E0" from="J0" to="J6" priority="-1">
        <lane id="E0_0" index="0" speed="15.65" length="890.00" shape="-1000.00,-11.20 -110.00,-11.20"/>
        <lane id="E0_1" index="1" speed="15.65" length="890.00" shape="-1000.00,-8.00 -110.00,-8.00"/>
        <lane id="E0_2" index="2" speed="15.65" length="890.00" shape="-1000.00,-4.80 -110.00,-4.80"/>
        <lane id="E0_3" index="3" speed="15.65" length="890.00" shape="-1000.00,-1.60 -110.00,-1.60"/>
    </edge>
    <edge id="E0.391" from="J6" to="J5" priority="-1">
        <lane id="E0.391_0" index="0" speed="15.65" length="39.88" shape="-110.00,-11.20 -70.12,-11.20"/>
        <lane id="E0.391_1" index="1" speed="15.65" length="39.88" shape="-110.00,-8.00 -70.12,-8.00"/>
        <lane id="E0.391_2" index="2" speed="15.65" length="39.88" shape="-110.00,-4.80 -70.12,-4.80"/>
        <lane id="E0.391_3" index="3" speed="15.65" length="39.88" shape="-110.00,-1.60 -70.12,-1.60"/>
    </edge>
    <edge id="E0.438" from="J5" to="J1" priority="-1" shape="-70.00,0.00 -8.41,0.52">
        <lane id="E0.438_0" index="0" speed="15.65" length="53.09" shape="-69.78,-11.20 -16.73,-10.75"/>
        <lane id="E0.438_1" index="1" speed="15.65" length="53.09" shape="-69.81,-8.00 -16.74,-7.55"/>
        <lane id="E0.438_2" index="2" speed="15.65" length="53.09" shape="-69.84,-4.80 -16.74,-4.35"/>
        <lane id="E0.438_3" index="3" speed="15.65" length="53.09" shape="-69.87,-1.60 -16.75,-1.15"/>
    </edge>
    <edge id="E1" from="J2" to="J12" priority="-1">
        <lane id="E1_0" index="0" speed="20.12" length="900.00" shape="-11.20,1000.00 -11.20,100.00"/>
        <lane id="E1_1" index="1" speed="20.12" length="900.00" shape="-8.00,1000.00 -8.00,100.00"/>
        <lane id="E1_2" index="2" speed="20.12" length="900.00" shape="-4.80,1000.00 -4.80,100.00"/>
        <lane id="E1_3" index="3" speed="20.12" length="900.00" shape="-1.60,1000.00 -1.60,100.00"/>
    </edge>
    <edge id="E1.417" from="J12" to="J11" priority="-1">
        <lane id="E1.417_0" index="0" speed="20.12" length="29.85" shape="-11.20,100.00 -11.20,70.15"/>
        <lane id="E1.417_1" index="1" speed="20.12" length="29.85" shape="-8.00,100.00 -8.00,70.15"/>
        <lane id="E1.417_2" index="2" speed="20.12" length="29.85" shape="-4.80,100.00 -4.80,70.15"/>
        <lane id="E1.417_3" index="3" speed="20.12" length="29.85" shape="-1.60,100.00 -1.60,70.15"/>
    </edge>
    <edge id="E1.449" from="J11" to="J1" priority="-1" shape="0.00,70.00 0.02,13.23">
        <lane id="E1.449_0" index="0" speed="20.12" length="53.12" shape="-11.20,69.85 -11.18,16.73"/>
        <lane id="E1.449_1" index="1" speed="20.12" length="53.12" shape="-8.00,69.85 -7.98,16.73"/>
        <lane id="E1.449_2" index="2" speed="20.12" length="53.12" shape="-4.80,69.85 -4.78,16.74"/>
        <lane id="E1.449_3" index="3" speed="20.12" length="53.12" shape="-1.60,69.85 -1.58,16.74"/>
    </edge>
    <edge id="E2" from="J1" to="J3" priority="-1" shape="11.73,-6.54 306.12,-7.77 998.56,-0.01">
        <lane id="E2_0" index="0" speed="15.65" length="983.96" shape="16.11,-11.36 306.14,-12.57 1000.05,-4.79"/>
        <lane id="E2_1" index="1" speed="15.65" length="983.96" shape="16.13,-8.16 306.13,-9.37 1000.02,-1.59"/>
    </edge>
    <edge id="E3" from="J1" to="J4" priority="-1" shape="-2.19,-5.46 0.00,-1000.00">
        <lane id="E3_0" index="0" speed="20.12" length="983.03" shape="-6.96,-16.98 -4.80,-1000.01"/>
        <lane id="E3_1" index="1" speed="20.12" length="983.03" shape="-3.76,-16.98 -1.60,-1000.00"/>
    </edge>

    <tlLogic id="J1" type="static" programID="0" offset="0">
        <phase duration="5" state="grrGgrrrrgrrGgrrrr"/>
        <phase duration="3"  state="grrygrrrrgrrygrrrr"/>
        <phase duration="2"  state="grrrgrrrrgrrrgrrrr"/>
        <phase duration="5" state="gGGrrrrrrgGGrrrrrr"/>
        <phase duration="3"  state="gyyrrrrrrgyyrrrrrr"/>
        <phase duration="2"  state="grrrgrrrrgrrrgrrrr"/>
        <phase duration="5" state="grrrrrrGGgrrrrrrGG"/>
        <phase duration="3"  state="grrrrrryygrrrrrryy"/>
        <phase duration="2"  state="grrrgrrrrgrrrgrrrr"/>
        <phase duration="5" state="rrrrgGGrrrrrrgGGrr"/>
        <phase duration="3"  state="rrrrgyyrrrrrrgyyrr"/>
        <phase duration="2"  state="grrrgrrrrgrrrgrrrr"/>
        <phase duration="1"  state="grrrgrrrrgrrrgrrrr"/>
    </tlLogic>

    <junction id="J0" type="dead_end" x="-1000.00" y="0.00" incLanes="-E0_0 -E0_1" intLanes="" shape="-1000.00,0.00 -1000.00,-12.80 -1000.04,6.40"/>
    <junction id="J1" type="traffic_light" x="-0.69" y="1.25" incLanes="E1.449_0 E1.449_1 E1.449_2 E1.449_3 -E2.430_0 -E2.430_1 -E2.430_2 -E2.430_3 -E3.443_0 -E3.443_1 -E3.443_2 -E3.443_3 E0.438_0 E0.438_1 E0.438_2 E0.438_3" intLanes=":J1_0_0 :J1_1_0 :J1_1_1 :J1_3_0 :J1_4_0 :J1_5_0 :J1_5_1 :J1_7_0 :J1_7_1 :J1_9_0 :J1_10_0 :J1_10_1 :J1_12_0 :J1_13_0 :J1_14_0 :J1_14_1 :J1_16_0 :J1_16_1" shape="-12.78,16.72 7.97,16.76 8.89,14.54 10.04,13.76 11.64,13.20 13.70,12.87 16.22,12.76 16.11,-12.96 13.89,-13.39 13.12,-13.95 12.57,-14.72 12.25,-15.72 12.15,-16.94 -8.56,-16.99 -9.48,-14.38 -10.61,-13.48 -12.20,-12.84 -14.23,-12.46 -16.73,-12.35 -16.78,12.34 -14.56,12.83 -13.78,13.44 -13.22,14.29 -12.89,15.39">
        <request index="0"  response="000000000000000000" foes="000000000001100000" cont="0"/>
        <request index="1"  response="000000000000000000" foes="111111000111100000" cont="0"/>
        <request index="2"  response="000000000000000000" foes="111111000111100000" cont="0"/>
        <request index="3"  response="000000110000000000" foes="111100110111100000" cont="0"/>
        <request index="4"  response="000000110000000000" foes="110000110000000000" cont="0"/>
        <request index="5"  response="000001110000001111" foes="110001110000001111" cont="0"/>
        <request index="6"  response="000001110000001111" foes="110001110000001111" cont="0"/>
        <request index="7"  response="001111110000001110" foes="001111110000001110" cont="0"/>
        <request index="8"  response="001111110000001110" foes="001111110000001110" cont="0"/>
        <request index="9"  response="000000000000000000" foes="001100000000000000" cont="0"/>
        <request index="10" response="000000000000000000" foes="111100000111111000" cont="0"/>
        <request index="11" response="000000000000000000" foes="111100000111111000" cont="0"/>
        <request index="12" response="000000000000000110" foes="111100000111100110" cont="0"/>
        <request index="13" response="000000000000000110" foes="000000000110000110" cont="0"/>
        <request index="14" response="000001111000001110" foes="000001111110001110" cont="0"/>
        <request index="15" response="000001111000001110" foes="000001111110001110" cont="0"/>
        <request index="16" response="000001110001111110" foes="000001110001111110" cont="0"/>
        <request index="17" response="000001110001111110" foes="000001110001111110" cont="0"/>
    </junction>
    <junction id="J10" type="priority" x="130.00" y="0.00" incLanes="-E2_0 -E2_1 -E2_2 -E2_3" intLanes=":J10_0_0 :J10_0_1 :J10_0_2 :J10_0_3" shape="130.00,12.80 130.00,0.00 130.00,12.80">
        <request index="0" response="0000" foes="0000" cont="0"/>
        <request index="1" response="0000" foes="0000" cont="0"/>
        <request index="2" response="0000" foes="0000" cont="0"/>
        <request index="3" response="0000" foes="0000" cont="0"/>
    </junction>
    <junction id="J11" type="priority" x="0.00" y="70.00" incLanes="E1.417_0 E1.417_1 E1.417_2 E1.417_3" intLanes=":J11_0_0 :J11_0_1 :J11_0_2 :J11_0_3" shape="-12.80,70.15 0.00,70.15 0.00,69.85 -12.80,69.85">
        <request index="0" response="0000" foes="0000" cont="0"/>
        <request index="1" response="0000" foes="0000" cont="0"/>
        <request index="2" response="0000" foes="0000" cont="0"/>
        <request index="3" response="0000" foes="0000" cont="0"/>
    </junction>
    <junction id="J12" type="priority" x="0.00" y="100.00" incLanes="E1_0 E1_1 E1_2 E1_3" intLanes=":J12_0_0 :J12_0_1 :J12_0_2 :J12_0_3" shape="-12.80,100.00 0.00,100.00 -12.80,100.00">
        <request index="0" response="0000" foes="0000" cont="0"/>
        <request index="1" response="0000" foes="0000" cont="0"/>
        <request index="2" response="0000" foes="0000" cont="0"/>
        <request index="3" response="0000" foes="0000" cont="0"/>
    </junction>
    <junction id="J2" type="dead_end" x="0.00" y="1000.00" incLanes="-E1_0 -E1_1" intLanes="" shape="0.00,1000.00 -12.80,1000.00 6.40,1000.01"/>
    <junction id="J3" type="dead_end" x="1000.00" y="-0.00" incLanes="E2_0 E2_1" intLanes="" shape="1000.00,0.00 1000.00,12.80 1000.07,-6.39"/>
    <junction id="J4" type="dead_end" x="0.00" y="-1000.00" incLanes="E3_0 E3_1" intLanes="" shape="0.00,-1000.00 12.80,-1000.00 -6.40,-1000.01"/>
    <junction id="J5" type="priority" x="-70.00" y="0.00" incLanes="E0.391_0 E0.391_1 E0.391_2 E0.391_3" intLanes=":J5_0_0 :J5_0_1 :J5_0_2 :J5_0_3" shape="-69.88,0.00 -69.77,-12.80 -70.12,-12.80 -70.12,0.00">
        <request index="0" response="0000" foes="0000" cont="0"/>
        <request index="1" response="0000" foes="0000" cont="0"/>
        <request index="2" response="0000" foes="0000" cont="0"/>
        <request index="3" response="0000" foes="0000" cont="0"/>
    </junction>
    <junction id="J6" type="priority" x="-110.00" y="0.00" incLanes="E0_0 E0_1 E0_2 E0_3" intLanes=":J6_0_0 :J6_0_1 :J6_0_2 :J6_0_3" shape="-110.00,0.00 -110.00,-12.80 -110.00,0.00">
        <request index="0" response="0000" foes="0000" cont="0"/>
        <request index="1" response="0000" foes="0000" cont="0"/>
        <request index="2" response="0000" foes="0000" cont="0"/>
        <request index="3" response="0000" foes="0000" cont="0"/>
    </junction>
    <junction id="J7" type="priority" x="0.00" y="-80.00" incLanes="-E3.401_0 -E3.401_1 -E3.401_2 -E3.401_3" intLanes=":J7_0_0 :J7_0_1 :J7_0_2 :J7_0_3" shape="12.80,-80.11 0.00,-80.11 -0.00,-79.89 12.80,-79.75">
        <request index="0" response="0000" foes="0000" cont="0"/>
        <request index="1" response="0000" foes="0000" cont="0"/>
        <request index="2" response="0000" foes="0000" cont="0"/>
        <request index="3" response="0000" foes="0000" cont="0"/>
    </junction>
    <junction id="J8" type="priority" x="0.00" y="-120.00" incLanes="-E3_0 -E3_1 -E3_2 -E3_3" intLanes=":J8_0_0 :J8_0_1 :J8_0_2 :J8_0_3" shape="0.00,-120.00 12.80,-120.00 0.00,-120.00">
        <request index="0" response="0000" foes="0000" cont="0"/>
        <request index="1" response="0000" foes="0000" cont="0"/>
        <request index="2" response="0000" foes="0000" cont="0"/>
        <request index="3" response="0000" foes="0000" cont="0"/>
    </junction>
    <junction id="J9" type="priority" x="60.00" y="0.00" incLanes="-E2.365_0 -E2.365_1 -E2.365_2 -E2.365_3" intLanes=":J9_0_0 :J9_0_1 :J9_0_2 :J9_0_3" shape="60.15,12.80 60.15,0.00 59.85,-0.00 59.84,12.80">
        <request index="0" response="0000" foes="0000" cont="0"/>
        <request index="1" response="0000" foes="0000" cont="0"/>
        <request index="2" response="0000" foes="0000" cont="0"/>
        <request index="3" response="0000" foes="0000" cont="0"/>
    </junction>

    <connection from="-E2" to="-E2.365" fromLane="0" toLane="0" via=":J10_0_0" dir="s" state="M"/>
    <connection from="-E2" to="-E2.365" fromLane="1" toLane="1" via=":J10_0_1" dir="s" state="M"/>
    <connection from="-E2" to="-E2.365" fromLane="2" toLane="2" via=":J10_0_2" dir="s" state="M"/>
    <connection from="-E2" to="-E2.365" fromLane="3" toLane="3" via=":J10_0_3" dir="s" state="M"/>
    <connection from="-E2.365" to="-E2.430" fromLane="0" toLane="0" via=":J9_0_0" dir="s" state="M"/>
    <connection from="-E2.365" to="-E2.430" fromLane="1" toLane="1" via=":J9_0_1" dir="s" state="M"/>
    <connection from="-E2.365" to="-E2.430" fromLane="2" toLane="2" via=":J9_0_2" dir="s" state="M"/>
    <connection from="-E2.365" to="-E2.430" fromLane="3" toLane="3" via=":J9_0_3" dir="s" state="M"/>
    <connection from="-E2.430" to="-E1" fromLane="0" toLane="0" via=":J1_4_0" tl="J1" linkIndex="4" dir="r" state="o"/>
    <connection from="-E2.430" to="-E0" fromLane="0" toLane="0" via=":J1_5_0" tl="J1" linkIndex="5" dir="s" state="o"/>
    <connection from="-E2.430" to="-E0" fromLane="1" toLane="1" via=":J1_5_1" tl="J1" linkIndex="6" dir="s" state="o"/>
    <connection from="-E2.430" to="E3" fromLane="2" toLane="0" via=":J1_7_0" tl="J1" linkIndex="7" dir="l" state="o"/>
    <connection from="-E2.430" to="E3" fromLane="3" toLane="1" via=":J1_7_1" tl="J1" linkIndex="8" dir="l" state="o"/>
    <connection from="-E3" to="-E3.401" fromLane="0" toLane="0" via=":J8_0_0" dir="s" state="M"/>
    <connection from="-E3" to="-E3.401" fromLane="1" toLane="1" via=":J8_0_1" dir="s" state="M"/>
    <connection from="-E3" to="-E3.401" fromLane="2" toLane="2" via=":J8_0_2" dir="s" state="M"/>
    <connection from="-E3" to="-E3.401" fromLane="3" toLane="3" via=":J8_0_3" dir="s" state="M"/>
    <connection from="-E3.401" to="-E3.443" fromLane="0" toLane="0" via=":J7_0_0" dir="s" state="M"/>
    <connection from="-E3.401" to="-E3.443" fromLane="1" toLane="1" via=":J7_0_1" dir="s" state="M"/>
    <connection from="-E3.401" to="-E3.443" fromLane="2" toLane="2" via=":J7_0_2" dir="s" state="M"/>
    <connection from="-E3.401" to="-E3.443" fromLane="3" toLane="3" via=":J7_0_3" dir="s" state="M"/>
    <connection from="-E3.443" to="E2" fromLane="0" toLane="0" via=":J1_9_0" tl="J1" linkIndex="9" dir="r" state="O"/>
    <connection from="-E3.443" to="-E1" fromLane="1" toLane="0" via=":J1_10_0" tl="J1" linkIndex="10" dir="s" state="O"/>
    <connection from="-E3.443" to="-E1" fromLane="2" toLane="1" via=":J1_10_1" tl="J1" linkIndex="11" dir="s" state="O"/>
    <connection from="-E3.443" to="-E0" fromLane="3" toLane="1" via=":J1_12_0" tl="J1" linkIndex="12" dir="l" state="o"/>
    <connection from="E0" to="E0.391" fromLane="0" toLane="0" via=":J6_0_0" dir="s" state="M"/>
    <connection from="E0" to="E0.391" fromLane="1" toLane="1" via=":J6_0_1" dir="s" state="M"/>
    <connection from="E0" to="E0.391" fromLane="2" toLane="2" via=":J6_0_2" dir="s" state="M"/>
    <connection from="E0" to="E0.391" fromLane="3" toLane="3" via=":J6_0_3" dir="s" state="M"/>
    <connection from="E0.391" to="E0.438" fromLane="0" toLane="0" via=":J5_0_0" dir="s" state="M"/>
    <connection from="E0.391" to="E0.438" fromLane="1" toLane="1" via=":J5_0_1" dir="s" state="M"/>
    <connection from="E0.391" to="E0.438" fromLane="2" toLane="2" via=":J5_0_2" dir="s" state="M"/>
    <connection from="E0.391" to="E0.438" fromLane="3" toLane="3" via=":J5_0_3" dir="s" state="M"/>
    <connection from="E0.438" to="E3" fromLane="0" toLane="0" via=":J1_13_0" tl="J1" linkIndex="13" dir="r" state="o"/>
    <connection from="E0.438" to="E2" fromLane="0" toLane="0" via=":J1_14_0" tl="J1" linkIndex="14" dir="s" state="o"/>
    <connection from="E0.438" to="E2" fromLane="1" toLane="1" via=":J1_14_1" tl="J1" linkIndex="15" dir="s" state="o"/>
    <connection from="E0.438" to="-E1" fromLane="2" toLane="0" via=":J1_16_0" tl="J1" linkIndex="16" dir="l" state="o"/>
    <connection from="E0.438" to="-E1" fromLane="3" toLane="1" via=":J1_16_1" tl="J1" linkIndex="17" dir="l" state="o"/>
    <connection from="E1" to="E1.417" fromLane="0" toLane="0" via=":J12_0_0" dir="s" state="M"/>
    <connection from="E1" to="E1.417" fromLane="1" toLane="1" via=":J12_0_1" dir="s" state="M"/>
    <connection from="E1" to="E1.417" fromLane="2" toLane="2" via=":J12_0_2" dir="s" state="M"/>
    <connection from="E1" to="E1.417" fromLane="3" toLane="3" via=":J12_0_3" dir="s" state="M"/>
    <connection from="E1.417" to="E1.449" fromLane="0" toLane="0" via=":J11_0_0" dir="s" state="M"/>
    <connection from="E1.417" to="E1.449" fromLane="1" toLane="1" via=":J11_0_1" dir="s" state="M"/>
    <connection from="E1.417" to="E1.449" fromLane="2" toLane="2" via=":J11_0_2" dir="s" state="M"/>
    <connection from="E1.417" to="E1.449" fromLane="3" toLane="3" via=":J11_0_3" dir="s" state="M"/>
    <connection from="E1.449" to="-E0" fromLane="0" toLane="0" via=":J1_0_0" tl="J1" linkIndex="0" dir="r" state="O"/>
    <connection from="E1.449" to="E3" fromLane="1" toLane="0" via=":J1_1_0" tl="J1" linkIndex="1" dir="s" state="O"/>
    <connection from="E1.449" to="E3" fromLane="2" toLane="1" via=":J1_1_1" tl="J1" linkIndex="2" dir="s" state="O"/>
    <connection from="E1.449" to="E2" fromLane="3" toLane="1" via=":J1_3_0" tl="J1" linkIndex="3" dir="l" state="o"/>

    <connection from=":J1_0" to="-E0" fromLane="0" toLane="0" dir="r" state="M"/>
    <connection from=":J1_1" to="E3" fromLane="0" toLane="0" dir="s" state="M"/>
    <connection from=":J1_1" to="E3" fromLane="1" toLane="1" dir="s" state="M"/>
    <connection from=":J1_3" to="E2" fromLane="0" toLane="1" dir="l" state="M"/>
    <connection from=":J1_4" to="-E1" fromLane="0" toLane="0" dir="r" state="M"/>
    <connection from=":J1_5" to="-E0" fromLane="0" toLane="0" dir="s" state="M"/>
    <connection from=":J1_5" to="-E0" fromLane="1" toLane="1" dir="s" state="M"/>
    <connection from=":J1_7" to="E3" fromLane="0" toLane="0" dir="l" state="M"/>
    <connection from=":J1_7" to="E3" fromLane="1" toLane="1" dir="l" state="M"/>
    <connection from=":J1_9" to="E2" fromLane="0" toLane="0" dir="r" state="M"/>
    <connection from=":J1_10" to="-E1" fromLane="0" toLane="0" dir="s" state="M"/>
    <connection from=":J1_10" to="-E1" fromLane="1" toLane="1" dir="s" state="M"/>
    <connection from=":J1_12" to="-E0" fromLane="0" toLane="1" dir="l" state="M"/>
    <connection from=":J1_13" to="E3" fromLane="0" toLane="0" dir="r" state="M"/>
    <connection from=":J1_14" to="E2" fromLane="0" toLane="0" dir="s" state="M"/>
    <connection from=":J1_14" to="E2" fromLane="1" toLane="1" dir="s" state="M"/>
    <connection from=":J1_16" to="-E1" fromLane="0" toLane="0" dir="l" state="M"/>
    <connection from=":J1_16" to="-E1" fromLane="1" toLane="1" dir="l" state="M"/>