<routes>
    <vType id="car" carFollowModel="IDM" vClass="passenger"/>
    <vType id="cav" carFollowModel="IDM" vClass="passenger" color="0,1,1"/>
    <vType id="bus" carFollowModel="IDM" vClass="bus" color="0,1,0"/>
<!--    <vType id="av" carFollowModel="IDM" vClass="passenger" color="0,1,1" tau="0.9"/>-->


    <flow id="NW" begin="0" end="3600" probability="0.008" from="E1" to="-E0" departSpeed="max" type="car" departLane="best" depart="0"/>
        <flow id="NW.cav" begin="0" end="3600" probability="0.034" from="E1" to="-E0" departSpeed="max" type="cav" departLane="best" depart="0"/>

    <flow id="NS" begin="0" end="3600" probability="0.039" from="E1" to="E3" departSpeed="max" type="car" departLane="best" depart="0"/>
        <flow id="NS.cav" begin="0" end="3600" probability="0.157" from="E1" to="E3" departSpeed="max" type="cav" departLane="best" depart="0"/>

    <flow id="NE" begin="0" end="3600" probability="0.002" from="E1" to="E2" departSpeed="max" type="car" departLane="best" depart="0"/>
        <flow id="NE.cav" begin="0" end="3600" probability="0.008" from="E1" to="E2" departSpeed="max" type="cav" departLane="best" depart="0"/>


    <flow id="EN" begin="0" end="3600" probability="0.002" from="-E2" to="-E1" departSpeed="max" type="car" departLane="best" depart="0"/>
        <flow id="EN.cav" begin="0" end="3600" probability="0.009" from="-E2" to="-E1" departSpeed="max" type="cav" departLane="best" depart="0"/>

    <flow id="EW" begin="0" end="3600" probability="0.018" from="-E2" to="-E0" departSpeed="max" type="car" departLane="best" depart="0"/>
        <flow id="EW.cav" begin="0" end="3600" probability="0.071" from="-E2" to="-E0" departSpeed="max" type="cav" departLane="best" depart="0"/>

    <flow id="ES" begin="0" end="3600" probability="0.013" from="-E2" to="E3" departSpeed="max" type="car" departLane="best" depart="0"/>
        <flow id="ES.cav" begin="0" end="3600" probability="0.052" from="-E2" to="E3" departSpeed="max" type="cav" departLane="best" depart="0"/>


    <flow id="SE" begin="0" end="3600" probability="0.007" from="-E3" to="E2" departSpeed="max" type="car" departLane="best" depart="0"/>
        <flow id="SE.cav" begin="0" end="3600" probability="0.027" from="-E3" to="E2" departSpeed="max" type="cav" departLane="best" depart="0"/>

    <flow id="SN" begin="0" end="3600" probability="0.03" from="-E3" to="-E1" departSpeed="max" type="car" departLane="best" depart="0"/>
        <flow id="SN.cav" begin="0" end="3600" probability="0.12" from="-E3" to="-E1" departSpeed="max" type="cav" departLane="best" depart="0"/>

    <flow id="SW" begin="0" end="3600" probability="0.008" from="-E3" to="-E0" departSpeed="max" type="car" departLane="best" depart="0"/>
        <flow id="SW.cav" begin="0" end="3600" probability="0.031" from="-E3" to="-E0" departSpeed="max" type="cav" departLane="best" depart="0"/>


    <flow id="WS" begin="0" end="3600" probability="0.007" from="E0" to="E3"   departSpeed="max" type="car" departLane="best" depart="0"/>
        <flow id="WS.cav" begin="0" end="3600" probability="0.028" from="E0" to="E3"   departSpeed="max" type="cav" departLane="best" depart="0"/>

    <flow id="WE" begin="0" end="3600" probability="0.011" from="E0" to="E2" departSpeed="max" type="car" departLane="best" depart="0"/>
        <flow id="WE.cav" begin="0" end="3600" probability="0.044" from="E0" to="E2" departSpeed="max" type="cav" departLane="best" depart="0"/>

    <flow id="WN" begin="0" end="3600" probability="0.005" from="E0" to="-E1" departSpeed="max" type="car" departLane="best" depart="0"/>
        <flow id="WN.cav" begin="0" end="3600" probability="0.02" from="E0" to="-E1" departSpeed="max" type="cav" departLane="best" depart="0"/>


    <flow id="BNS" begin="0" end="3600" period="exp(0.0033)" from="E1" to="E3" departSpeed="max" type="bus" departLane="best" depart="0"/>
    <flow id="BSN" begin="0" end="3600" period="exp(0.0033)" from="-E3" to="-E1" departSpeed="max" type="bus" departLane="best" depart="0"/>

</routes>



